/*--------------------------------*- C++ -*----------------------------------*\
| =========                 |                                                 |
| \\      /  F ield         | OpenFOAM: The Open Source CFD Toolbox           |
|  \\    /   O peration     | Version:  5.x                                   |
|   \\  /    A nd           | Web:      www.OpenFOAM.org                      |
|    \\/     M anipulation  |                                                 |
\*---------------------------------------------------------------------------*/
/*   Windows 32 and 64 bit porting by blueCAPE: http://www.bluecape.com.pt   *\
|  Based on Windows porting (2.0.x v4) by Symscape: http://www.symscape.com   |
\*---------------------------------------------------------------------------*/
FoamFile
{
    version     2.0;
    format      ascii;
    class       volScalarField;
    location    "0/matrix";
    object      p;
}
// * * * * * * * * * * * * * * * * * * * * * * * * * * * * * * * * * * * * * //

dimensions      [1 -1 -2 0 0 0 0];

internalField   uniform 100000;

boundaryField
{
    matrixLeft
    {
        type            calculated;
        value           uniform 100000;;
    }
    matrixRight
    {
        type            calculated;
        value           uniform 100000;
    }
    matrixTop
    {
        type            cyclicAMI;
    }
        matrixBottom
    {
        type            cyclicAMI;
    }
    matrix_to_fibres
    {
        type            calculated;
        value           uniform 100000;
    }
    matrixFront
    {
        type            empty;
    }
    matrixRear
    {
        type            empty;
    }
}


// ************************************************************************* //
