/*--------------------------------*- C++ -*----------------------------------*\
| =========                 |                                                 |
| \\      /  F ield         | OpenFOAM: The Open Source CFD Toolbox           |
|  \\    /   O peration     | Version:  5.x                                   |
|   \\  /    A nd           | Web:      www.OpenFOAM.org                      |
|    \\/     M anipulation  |                                                 |
\*---------------------------------------------------------------------------*/
/*   Windows 32 and 64 bit porting by blueCAPE: http://www.bluecape.com.pt   *\
|  Based on Windows porting (2.0.x v4) by Symscape: http://www.symscape.com   |
\*---------------------------------------------------------------------------*/
FoamFile
{
    version     2.0;
    format      ascii;
    class       volScalarField;
    location    "0/matrix";
    object      T;
}
// * * * * * * * * * * * * * * * * * * * * * * * * * * * * * * * * * * * * * //

dimensions      [0 0 0 1 0 0 0];

internalField   uniform 300;

boundaryField
{
    matrix_to_fibres
    {
        type            compressible::turbulentTemperatureCoupledBaffleMixed;
        value           uniform 300;
        Tnbr            T;
        thicknessLayers	(1e-4);
        kappaLayers	    (1);
        kappaMethod     solidThermo;
    }
    matrixLeft
    {
        type            fixedValue;
        value           uniform 310;
    }
    matrixRight
    {
        type            zeroGradient;
    }
    matrixTop
    {
        type            cyclicAMI;
    }
        matrixBottom
    {
        type            cyclicAMI;
    }
    matrixFront
    {
        type            empty;
    }
    matrixRear
    {
        type            empty;
    }
}


// ************************************************************************* //
